<?xml version="1.0" encoding="UTF-8"?>

<!-- generated on 2022-09-13 10:40:19 by Eclipse SUMO netedit Version v1_9_2+0714-6f4aab01f9d
<configuration xmlns:xsi="http://www.w3.org/2001/XMLSchema-instance" xsi:noNamespaceSchemaLocation="http://sumo.dlr.de/xsd/netconvertConfiguration.xsd">

    <input>
        <sumo-net-file value="intersection.net.xml"/>
    </input>

    <output>
        <output-file value="intersection.net.xml"/>
    </output>

    <processing>
        <geometry.min-radius.fix.railways value="false"/>
        <geometry.max-grade.fix value="false"/>
        <offset.disable-normalization value="true"/>
        <lefthand value="false"/>
    </processing>

    <junctions>
        <no-turnarounds value="true"/>
        <junctions.corner-detail value="5"/>
        <junctions.limit-turn-speed value="5.5"/>
        <rectangular-lane-cut value="false"/>
    </junctions>

    <pedestrian>
        <walkingareas value="false"/>
    </pedestrian>

    <report>
        <aggregate-warnings value="5"/>
    </report>

</configuration>
-->

<net version="1.9" junctionCornerDetail="5" limitTurnSpeed="5.50" xmlns:xsi="http://www.w3.org/2001/XMLSchema-instance" xsi:noNamespaceSchemaLocation="http://sumo.dlr.de/xsd/net_file.xsd">

    <location netOffset="0.00,0.00" convBoundary="-120.53,67.80,265.90,214.23" origBoundary="120.53,67.80,265.90,214.23" projParameter="+proj=tmerc +ellps=WGS84 +datum=WGS84 +units=m +no_defs"/>

    <edge id=":gneJ1_0" function="internal">
        <lane id=":gneJ1_0_0" index="0" speed="6.50" length="9.03" shape="56.07,78.41 55.72,75.96 54.67,74.21 52.92,73.16 50.47,72.81"/>
    </edge>
    <edge id=":gneJ1_1" function="internal">
        <lane id=":gneJ1_1_0" index="0" speed="9.27" length="19.35" shape="59.27,78.42 60.02,73.16 62.27,69.41 66.02,67.16 71.26,66.40"/>
    </edge>
    <edge id=":gneJ1_2" function="internal">
        <lane id=":gneJ1_2_0" index="0" speed="6.52" length="9.05" shape="71.27,72.80 68.82,73.15 67.07,74.21 66.02,75.97 65.67,78.43"/>
    </edge>
    <edge id=":gneJ1_3" function="internal">
        <lane id=":gneJ1_3_0" index="0" speed="13.89" length="20.80" shape="71.27,69.60 50.47,69.61"/>
    </edge>
    <edge id=":gneJ1_4" function="internal">
        <lane id=":gneJ1_4_0" index="0" speed="13.89" length="20.79" shape="50.47,63.21 71.26,63.20"/>
        <lane id=":gneJ1_4_1" index="1" speed="13.89" length="20.79" shape="50.47,66.41 71.26,66.40"/>
    </edge>
    <edge id=":gneJ1_6" function="internal">
        <lane id=":gneJ1_6_0" index="0" speed="9.26" length="6.95" shape="50.47,66.41 55.73,67.16 57.13,68.01"/>
    </edge>
    <edge id=":gneJ1_7" function="internal">
        <lane id=":gneJ1_7_0" index="0" speed="9.26" length="12.41" shape="57.13,68.01 59.48,69.41 61.72,73.17 62.47,78.42"/>
    </edge>

    <edge id="gneE0" from="gneJ0" to="gneJ1" priority="-1" length="171.00">
        <lane id="gneE0_0" index="0" speed="13.89" length="171.00" shape="-120.53,63.21 50.47,63.21"/>
        <lane id="gneE0_1" index="1" speed="13.89" length="171.00" shape="-120.53,66.41 50.47,66.41"/>
    </edge>
    <edge id="gneE1" from="gneJ1" to="gneJ2" priority="-1">
        <lane id="gneE1_0" index="0" speed="13.89" length="194.64" shape="71.26,63.20 265.90,63.00"/>
        <lane id="gneE1_1" index="1" speed="13.89" length="194.64" shape="71.26,66.40 265.90,66.20"/>
    </edge>
    <edge id="gneE2" from="gneJ1" to="gneJ3" priority="-1">
        <lane id="gneE2_0" index="0" speed="13.89" length="135.81" shape="65.67,78.43 65.48,214.24"/>
        <lane id="gneE2_1" index="1" speed="13.89" length="135.81" shape="62.47,78.42 62.28,214.23"/>
    </edge>
    <edge id="gneE4" from="gneJ1" to="gneJ0" priority="-1" length="171.00">
        <lane id="gneE4_0" index="0" speed="13.89" length="171.00" shape="50.47,72.81 -120.53,72.81"/>
        <lane id="gneE4_1" index="1" speed="13.89" length="171.00" shape="50.47,69.61 -120.53,69.61"/>
    </edge>
    <edge id="gneE5" from="gneJ2" to="gneJ1" priority="-1">
        <lane id="gneE5_0" index="0" speed="13.89" length="194.64" shape="265.90,72.60 71.27,72.80"/>
        <lane id="gneE5_1" index="1" speed="13.89" length="194.64" shape="265.90,69.40 71.27,69.60"/>
    </edge>
    <edge id="gneE6" from="gneJ3" to="gneJ1" priority="-1">
        <lane id="gneE6_0" index="0" speed="13.89" length="135.81" shape="55.88,214.22 56.07,78.41"/>
        <lane id="gneE6_1" index="1" speed="13.89" length="135.81" shape="59.08,214.23 59.27,78.42"/>
    </edge>

    <junction id="gneJ0" type="dead_end" x="-120.53" y="68.01" incLanes="gneE4_0 gneE4_1" intLanes="" shape="-120.53,68.01 -120.53,74.41 -120.53,68.01"/>
    <junction id="gneJ1" type="priority" x="60.88" y="68.01" incLanes="gneE6_0 gneE6_1 gneE5_0 gneE5_1 gneE0_0 gneE0_1" intLanes=":gneJ1_0_0 :gneJ1_1_0 :gneJ1_2_0 :gneJ1_3_0 :gneJ1_4_0 :gneJ1_4_1 :gneJ1_7_0" shape="54.47,78.41 67.27,78.43 67.71,76.19 68.27,75.41 69.05,74.85 70.05,74.51 71.27,74.40 71.26,61.60 50.47,61.61 50.47,74.41 52.69,74.85 53.47,75.41 54.02,76.19 54.36,77.19">
        <request index="0" response="0000000" foes="0000000" cont="0"/>
        <request index="1" response="1111000" foes="1111000" cont="0"/>
        <request index="2" response="0000000" foes="0000000" cont="0"/>
        <request index="3" response="0000000" foes="1000010" cont="0"/>
        <request index="4" response="0000000" foes="0000010" cont="0"/>
        <request index="5" response="0000000" foes="0000010" cont="0"/>
        <request index="6" response="0001000" foes="0001010" cont="1"/>
    </junction>
    <junction id="gneJ2" type="dead_end" x="265.90" y="67.80" incLanes="gneE1_0 gneE1_1" intLanes="" shape="265.90,67.80 265.89,61.40 265.90,67.80"/>
    <junction id="gneJ3" type="dead_end" x="60.68" y="214.23" incLanes="gneE2_0 gneE2_1" intLanes="" shape="60.68,214.23 67.08,214.24 60.68,214.23"/>

    <junction id=":gneJ1_7_0" type="internal" x="57.13" y="68.01" incLanes=":gneJ1_6_0 gneE5_1" intLanes=":gneJ1_1_0 :gneJ1_3_0"/>

    <connection from="gneE0" to="gneE1" fromLane="0" toLane="0" via=":gneJ1_4_0" dir="s" state="M"/>
    <connection from="gneE0" to="gneE1" fromLane="1" toLane="1" via=":gneJ1_4_1" dir="s" state="M"/>
    <connection from="gneE0" to="gneE2" fromLane="1" toLane="1" via=":gneJ1_6_0" dir="l" state="m"/>
    <connection from="gneE5" to="gneE2" fromLane="0" toLane="0" via=":gneJ1_2_0" dir="r" state="M"/>
    <connection from="gneE5" to="gneE4" fromLane="1" toLane="1" via=":gneJ1_3_0" dir="s" state="M"/>
    <connection from="gneE6" to="gneE4" fromLane="0" toLane="0" via=":gneJ1_0_0" dir="r" state="M"/>
    <connection from="gneE6" to="gneE1" fromLane="1" toLane="1" via=":gneJ1_1_0" dir="l" state="m"/>

    <connection from=":gneJ1_0" to="gneE4" fromLane="0" toLane="0" dir="r" state="M"/>
    <connection from=":gneJ1_1" to="gneE1" fromLane="0" toLane="1" dir="l" state="M"/>
    <connection from=":gneJ1_2" to="gneE2" fromLane="0" toLane="0" dir="r" state="M"/>
    <connection from=":gneJ1_3" to="gneE4" fromLane="0" toLane="1" dir="s" state="M"/>
    <connection from=":gneJ1_4" to="gneE1" fromLane="0" toLane="0" dir="s" state="M"/>
    <connection from=":gneJ1_4" to="gneE1" fromLane="1" toLane="1" dir="s" state="M"/>
    <connection from=":gneJ1_6" to="gneE2" fromLane="0" toLane="1" via=":gneJ1_7_0" dir="l" state="m"/>
    <connection from=":gneJ1_7" to="gneE2" fromLane="0" toLane="1" dir="l" state="M"/>

</net>
