[General]
sim-time-limit = 6000s
debug-on-errors = true
print-undisposed = true

cmdenv-express-mode = true
cmdenv-autoflush = true

**.scalar-recording = false
**.vector-recording = false

*.traci.core.version = -1
*.traci.launcher.typename = "PosixLauncher"
*.traci.launcher.sumocfg = "envmod_test.sumocfg"

num-rngs = 2
*.traci.mapper.rng-0 = 1

network = artery.envmod.World

*.node[*].wlan[*].typename = "VanetNic"
*.node[*].wlan[*].radio.channelNumber = 180
*.node[*].wlan[*].radio.carrierFrequency = 5.9 GHz
*.node[*].wlan[*].radio.transmitter.power = 200 mW

*.node[*].middleware.updateInterval = 0.1s
*.node[*].middleware.datetime = "2013-06-01 12:35:00"
*.node[*].middleware.services = xmldoc("services.xml")

**.identityRegistryModule = "idRegistry"
*.traci.mapper.vehicleType = "artery.envmod.Car"
*.environmentModel.drawObstacles = true
*.environmentModel.drawVehicles = true
*.environmentModel.obstacleTypes = "building shop"
*.environmentModel.traciModule = "traci"
*.environmentModel.nodeMobilityModule = ".mobility"

*.node[*].environmentModel.sensors = xmldoc("sensors_realistic.xml")
*.node[*].environmentModel.*.drawSensorCone = true
*.node[*].environmentModel.*.drawLinesOfSight = true
*.node[*].environmentModel.*.drawDetectedObjects = true
*.node[*].environmentModel.*.drawBlockingObstacles = true
*.node[*].environmentModel.*.drawObjectWrapper = true
*.node[*].environmentModel.*.drawResolution = true

*.node[*].environmentModel.*.angleResolution = 4
*.node[*].environmentModel.*.rangeResolution = 0.5m

*.node[*].environmentModel.Radar.*.scalar-recording = true
*.node[*].environmentModel.Lidar.*.scalar-recording = true
*.node[*].environmentModel.Radar.*.vector-recording = true
*.node[*].environmentModel.Lidar.*.vector-recording = true
